Version 4.1
SHEET 1 1384 1428
WIRE -1264 96 -1264 48
WIRE -1296 112 -1440 112
WIRE -2272 128 -2304 128
WIRE -2144 128 -2192 128
WIRE -1888 128 -1888 96
WIRE -1888 128 -1904 128
WIRE -1296 144 -1344 144
WIRE -2144 160 -2144 128
WIRE -1344 160 -1344 144
WIRE -2304 192 -2304 128
WIRE -1744 192 -1968 192
WIRE -960 192 -1120 192
WIRE -944 192 -960 192
WIRE -832 192 -832 144
WIRE -832 192 -864 192
WIRE -752 192 -752 144
WIRE -720 192 -752 192
WIRE -704 192 -720 192
WIRE -576 192 -624 192
WIRE -432 192 -576 192
WIRE -1904 240 -1904 128
WIRE -1296 240 -1344 240
WIRE -832 240 -832 192
WIRE -752 240 -752 192
WIRE -752 240 -768 240
WIRE -576 240 -576 192
WIRE -1968 256 -1968 192
WIRE -1936 256 -1968 256
WIRE -1744 272 -1744 192
WIRE -1744 272 -1872 272
WIRE -1536 272 -1744 272
WIRE -1296 272 -1536 272
WIRE -2144 288 -2144 240
WIRE -1936 288 -2144 288
WIRE -2144 304 -2144 288
WIRE -2144 320 -2144 304
WIRE -1264 320 -1264 288
WIRE -800 320 -816 320
WIRE -464 320 -480 320
WIRE -1904 352 -1904 304
WIRE -960 352 -960 192
WIRE -928 352 -960 352
WIRE -720 352 -720 192
WIRE -720 352 -768 352
WIRE -928 368 -928 352
WIRE -896 368 -896 320
WIRE -800 368 -800 320
WIRE -768 368 -768 352
WIRE -592 368 -592 352
WIRE -560 368 -560 320
WIRE -464 368 -464 320
WIRE -432 368 -432 192
WIRE -944 400 -1040 400
WIRE -736 400 -752 400
WIRE -608 400 -688 400
WIRE -368 400 -416 400
WIRE -2144 448 -2144 384
WIRE -912 480 -1184 480
WIRE -576 480 -608 480
WIRE -848 608 -848 544
WIRE -512 608 -512 544
WIRE -1040 720 -1040 400
WIRE -944 720 -1040 720
WIRE -848 720 -864 720
WIRE -832 720 -848 720
WIRE -736 720 -736 400
WIRE -736 720 -752 720
WIRE -688 720 -688 400
WIRE -560 720 -688 720
WIRE -464 720 -480 720
WIRE -448 720 -464 720
WIRE -368 720 -368 400
WIRE -848 784 -848 720
WIRE -464 784 -464 720
WIRE -1536 816 -1536 272
WIRE -1184 816 -1184 480
WIRE -1184 816 -1536 816
WIRE -1184 928 -1184 816
WIRE -608 928 -608 480
WIRE -608 928 -1184 928
FLAG -576 240 0
FLAG -848 608 Uv
FLAG -512 608 Ui
FLAG -848 784 0
FLAG -464 784 0
FLAG -1264 400 0
FLAG -1264 -32 0
FLAG -1184 256 0
FLAG -1520 112 0
FLAG -2144 448 0
FLAG -2304 192 0
FLAG -1888 16 0
FLAG -1904 432 0
SYMBOL res -848 176 R90
WINDOW 0 0 56 VBottom 2
WINDOW 3 32 56 VTop 2
SYMATTR InstName R1
SYMATTR Value 1.5k
SYMBOL res -736 128 R90
WINDOW 0 0 56 VBottom 2
WINDOW 3 32 56 VTop 2
SYMATTR InstName R2
SYMATTR Value 1.5k
SYMBOL res -608 176 R90
WINDOW 0 0 56 VBottom 2
WINDOW 3 32 56 VTop 2
SYMATTR InstName R3
SYMATTR Value 1.5k
SYMBOL cap -768 224 R90
WINDOW 0 0 32 VBottom 2
WINDOW 3 32 32 VTop 2
SYMATTR InstName C1
SYMATTR Value 47n
SYMBOL OpAmps\\AD8421 -512 400 R90
SYMATTR InstName U2
SYMBOL res -464 304 R90
WINDOW 0 0 56 VBottom 2
WINDOW 3 32 56 VTop 2
SYMATTR InstName R5
SYMATTR Value 100k
SYMBOL res -800 304 R90
WINDOW 0 0 56 VBottom 2
WINDOW 3 32 56 VTop 2
SYMATTR InstName R6
SYMATTR Value 100k
SYMBOL voltage -736 720 R90
WINDOW 0 -32 56 VBottom 2
WINDOW 3 32 56 VTop 2
WINDOW 123 0 0 Left 0
WINDOW 39 0 0 Left 0
SYMATTR InstName V2
SYMATTR Value 15
SYMBOL voltage -352 720 R90
WINDOW 0 -32 56 VBottom 2
WINDOW 3 32 56 VTop 2
WINDOW 123 0 0 Left 0
WINDOW 39 0 0 Left 0
SYMATTR InstName V3
SYMATTR Value 15
SYMBOL voltage -848 720 R90
WINDOW 0 -32 56 VBottom 2
WINDOW 3 32 56 VTop 2
WINDOW 123 0 0 Left 0
WINDOW 39 0 0 Left 0
SYMATTR InstName V7
SYMATTR Value 15
SYMBOL voltage -464 720 R90
WINDOW 0 -32 56 VBottom 2
WINDOW 3 32 56 VTop 2
WINDOW 123 0 0 Left 0
WINDOW 39 0 0 Left 0
SYMATTR InstName V8
SYMATTR Value 15
SYMBOL OpAmps\\AD8421 -1264 192 R0
SYMATTR InstName U4
SYMBOL res -1360 144 R0
SYMATTR InstName R7
SYMATTR Value 100k
SYMBOL voltage -1264 64 R180
WINDOW 0 24 96 Left 2
WINDOW 3 24 16 Left 2
WINDOW 123 0 0 Left 0
WINDOW 39 0 0 Left 0
SYMATTR InstName V10
SYMATTR Value 5
SYMBOL voltage -1264 416 R180
WINDOW 0 24 96 Left 2
WINDOW 3 24 16 Left 2
WINDOW 123 0 0 Left 0
WINDOW 39 0 0 Left 0
SYMATTR InstName V11
SYMATTR Value 5
SYMBOL voltage -2176 128 R90
WINDOW 0 -32 56 VBottom 2
WINDOW 3 32 56 VTop 2
WINDOW 123 0 0 Left 0
WINDOW 39 0 0 Left 0
SYMATTR InstName V6
SYMATTR Value 3.3
SYMBOL res -2160 144 R0
SYMATTR InstName R8
SYMATTR Value 58
SYMBOL res -2160 288 R0
SYMATTR InstName R9
SYMATTR Value 58
SYMBOL voltage -1424 112 R90
WINDOW 0 -32 56 VBottom 2
WINDOW 3 32 56 VTop 2
WINDOW 123 0 0 Left 0
WINDOW 39 0 0 Left 0
SYMATTR InstName V9
SYMATTR Value PWL file="D:\M.Sc ES\Semester 2\PLES\Crest Factor Optimization\cf_deblur_v2_public\multisine_input.txt"
SYMBOL OpAmps\\ADA4522-1 -1904 208 R0
SYMATTR InstName U6
SYMBOL voltage -1888 112 R180
WINDOW 0 24 96 Left 2
WINDOW 3 24 16 Left 2
WINDOW 123 0 0 Left 0
WINDOW 39 0 0 Left 0
SYMATTR InstName V1
SYMATTR Value 5
SYMBOL voltage -1904 448 R180
WINDOW 0 24 96 Left 2
WINDOW 3 24 16 Left 2
WINDOW 123 0 0 Left 0
WINDOW 39 0 0 Left 0
SYMATTR InstName V4
SYMATTR Value 5
SYMBOL OpAmps\\AD8421 -848 400 R90
SYMATTR InstName U1
TEXT -1072 -48 Left 2 !.tran 0 2.048m 0 5n
